#B3LYP/TZVP OPT FREQ

Energy:   -732.79754763

0 1
    O      2.48836476      4.59871336      4.73463774
    H      2.30948576      4.63431669      5.70535191
    O      3.04369401      4.48803451      2.46648509
    H      2.52397667      3.75617798      2.05231645
    H      2.84516995      5.36370989      2.05286115
    H      2.93398839      4.50976962      3.44893736


