#B3LYP/TZVP OPT FREQ

Energy:    -96.52668032

0 1
    S      2.61757201      1.08901178      1.63971405
    O      2.85716604      2.59531534      2.07661598
    O      1.67750289      0.50736663      2.53149957
    H      3.77471438      2.73602223      2.27969196
    O      3.90951824      0.50447971      1.46564112
    C      1.84510816      1.32750133      0.07299913
    H      0.94527860      1.90727936      0.21881881
    H      2.53543367      1.83263583     -0.58617802
    H      1.60151054      0.34595037     -0.31007705
    N      6.73660738      0.50261618      2.35580740
    H      7.37575746      0.18169208      1.62937868
    H      5.79878819      0.32972260      1.99551964
    H      6.85702001     -0.14302257      3.13545841
    O      5.50735806      2.99327898      2.65044916
    H      5.96957748      2.15482654      2.54303496
    H      6.14235729      3.58197493      3.07282359


