#B3LYP/TZVP OPT FREQ

Energy:   -732.79754737

0 1
    O      2.69001015      4.39965083      4.60014736
    H      2.50363192      4.39914446      5.57010313
    O      3.26556656      4.39873457      2.33433831
    H      2.88907312      3.58598990      1.91606265
    H      2.91306891      5.22511011      1.92184246
    H      3.14968181      4.39711383      3.31632013


