#B3LYP/TZVP OPT FREQ

Energy:   -732.79724439

0 1
    O      2.02183520      4.21843426      5.90148376
    H      2.03627708      4.23083267      6.88900034
    O      2.06227039      4.07306537      3.56859051
    H      1.13202841      3.99309202      3.24376768
    H      2.51108374      4.87885303      3.21281421
    H      2.11522339      4.02535532      4.55481560


