#B3LYP/TZVP OPT FREQ

Energy:   -732.77955795

0 1
    O      2.02286451      4.32243544      6.56534055
    H      2.20857567      3.35335399      6.52125197
    O      1.65773729      6.63148508      6.55478473
    H      0.68543993      6.79431698      6.48144063
    H      2.03555377      7.01160091      7.38548961
    H      1.88139938      5.67390402      6.45117975


