6
Energy:   -732.77955795
    O      0.27426942     -1.30874730     -0.09457399
    H      0.45998058     -2.27782874     -0.13866257
    O     -0.09085780      1.00030234     -0.10512981
    H     -1.06315516      1.16313424     -0.17847391
    H      0.28695868      1.38041818      0.72557507
    H      0.13280429      0.04272128     -0.20873479
