#B3LYP/TZVP OPT FREQ

Energy:   -732.64928318

0 1
    O      3.89069442      5.84399311      5.83691142
    H      3.83294503      5.67410296      6.80817535
    O      4.06082798      6.37668396      3.56704710
    H      3.18083499      6.22610643      3.14255389
    H      4.02058990      6.27515338      4.54958279
    H      4.76669443      5.81249003      3.16560225


