6
Energy:   -732.64928318
    O     -0.06807004     -0.19076187      1.32526595
    H     -0.12581943     -0.36065202      2.29652989
    O      0.10206352      0.34192898     -0.94459836
    H     -0.77792947      0.19135145     -1.36909158
    H      0.06182545      0.24039841      0.03793732
    H      0.80792998     -0.22226495     -1.34604322
