#B3LYP/TZVP OPT FREQ

Energy:   -732.63129018

0 1
    O      3.97150012      5.46944638      4.89001663
    H      3.83613244      5.41042253      5.86661433
    O      4.19177877      5.70390152      2.57452968
    H      3.99727134      4.83213013      2.15092935
    H      4.00499964      5.69416201      3.54526272
    H      5.10971359      6.01433651      2.37768966


