#B3LYP/TZVP OPT FREQ

Energy:   -732.62001247

0 1
    O      4.17247385      5.08492044      5.21533400
    H      4.08101266      5.24319402      6.18597070
    O      4.45626994      4.59363627      2.94749853
    H      4.40000870      4.69080923      3.92966340
    H      3.56382880      4.50048828      2.53255733
    H      4.98256600      5.32104648      2.53324372


