6
Energy:   -732.60201619
    O     -0.42014526      0.18670588     -1.25939817
    H     -0.75235142      0.34200990     -2.17649740
    O      0.46590268     -0.25944482      0.85739885
    H      0.18670013     -0.14540823     -0.08403482
    H      0.74456901      0.59580074      1.26752570
    H     -0.22467515     -0.71966346      1.39500583
