#B3LYP/TZVP OPT FREQ

Energy:    -41.65691598

0 1
    O      4.18555881      5.18296149      3.59964732
    H      3.71772629      5.03346717      4.42848463
    H      5.07718895      4.84888057      3.74652391
    O      3.02319484      4.69726906      5.97766189
    H      2.38599553      3.99239593      6.13677827
    H      2.82234261      5.37486521      6.63242058


