#B3LYP/TZVP OPT FREQ

Energy:    -20.57165246

0 1
    O      3.76406099      8.36261716      5.19965298
    H      3.36327917      8.68767372      4.38608106
    H      4.58568167      7.93944428      4.92752933
    O      5.44044654      8.75527220      2.81170183
    H      5.79778585      8.24346274      2.07784434
    H      6.20789294      9.05253416      3.31254957


