6
Energy:     -8.22225908
    O     -1.17973239      1.08068887      1.00426757
    H     -0.52816470      1.16681137      1.70870320
    H     -0.79153003      0.46621628      0.37188362
    O      1.09054745     -0.97156139     -0.74372614
    H      0.32767573     -1.51033232     -0.98024195
    H      1.08120392     -0.23182282     -1.36088629
