6
Energy:     -6.61342461
    O     -0.78141731     -0.24120188     -1.30726081
    H     -1.34334189     -0.15579539     -2.08516415
    H     -1.34537225     -0.01523848     -0.55954263
    O      1.38304906      0.05686340      1.62391892
    H      1.57523826      0.66101849      0.89849006
    H      0.51184414     -0.30564615      1.42955861
