#B3LYP/TZVP OPT FREQ

Energy:   -732.79754763

0 1
    O      3.14054346      4.70169629      5.27369749
    H      2.96924719      4.76410098      6.24442635
    O      3.67241518      4.50792698      3.00549939
    H      3.04790043      3.86305714      2.59151875
    H      3.60859627      5.40349357      2.59174636
    H      3.56739982      4.54616055      3.98796068


