6
Energy:   -732.79754763
    O     -0.19380693      0.07062370      1.32455598
    H     -0.36510320      0.13302840      2.29528485
    O      0.33806479     -0.12314560     -0.94364211
    H     -0.28644996     -0.76801545     -1.35762275
    H      0.27424588      0.77242098     -1.35739515
    H      0.23304943     -0.08491204      0.03881917
