 34
 Electronic Energy = -992.068576487
C	0.971807 1.963885 0.439389
O	2.134415 2.266683 0.617882
O	0.202511 2.706132 -0.351918
H	-0.720204 2.384860 -0.366877
C	0.313275 0.767536 1.119167
H	0.849154 0.578304 2.048626
C	0.314293 -0.541908 0.289768
C	-0.565809 -0.462151 -0.989049
H	-0.341024 0.471715 -1.510353
H	-0.301348 -1.280003 -1.657044
C	-2.057523 -0.591105 -0.795248
C	-2.876718 0.615545 -0.280106
C	-4.284914 0.344528 0.142192
H	-4.275056 -0.323973 1.009629
H	-4.820406 -0.182081 -0.651677
H	-4.780025 1.280562 0.397734
O	-2.381846 1.728561 -0.260500
O	-2.672857 -1.586444 -1.119455
C	1.780127 -0.977248 -0.093796
C	2.725959 -0.895324 1.105179
H	2.878893 0.126111 1.452286
H	3.697434 -1.308608 0.832284
H	2.308578 -1.493827 1.919173
C	1.863243 -2.383497 -0.691531
H	1.206475 -2.518445 -1.552362
H	1.620781 -3.142108 0.056718
H	2.889551 -2.540724 -1.032518
O	2.077166 -0.018342 -1.134546
O	3.426417 0.408987 -1.104982
H	3.336783 1.243324 -0.605428
O	-0.119968 -1.610537 1.130669
O	-1.423549 -1.297537 1.639730
H	-1.875973 -2.134502 1.464189
H	-0.714367 1.017812 1.384799
all32_cgenff q  epsilon (kJ/mol) sigma (AA)
0.140386  0.46024  3.5636 # CG2N1
-0.461869  1.0455   3.15   # O
-0.397504  1.0455   3.15   # O
0.455438  0.19246  0.4    # HGP2
0.380706  0.46024  3.5636 # CG2N1
0.220795  0.19246  0.4    # HGP2
-1.723253  0.46024  3.5636 # CG2N1
0.516727  0.46024  3.5636 # CG2N1
0.226223  0.19246  0.4    # HGP2
0.190884  0.19246  0.4    # HGP2
0.007168  0.46024  3.5636 # CG2N1
0.540570  0.46024  3.5636 # CG2N1
-0.641011  0.46024  3.5636 # CG2N1
0.177133  0.19246  0.4    # HGP2
0.210197  0.19246  0.4    # HGP2
0.191577  0.19246  0.4    # HGP2
-0.420949  1.0455   3.15   # O
-0.370862  1.0455   3.15   # O
-0.090483  0.46024  3.5636 # CG2N1
-0.275634  0.46024  3.5636 # CG2N1
0.172479  0.19246  0.4    # HGP2
0.181731  0.19246  0.4    # HGP2
0.195937  0.19246  0.4    # HGP2
-0.307001  0.46024  3.5636 # CG2N1
0.118328  0.19246  0.4    # HGP2
0.168441  0.19246  0.4    # HGP2
0.178526  0.19246  0.4    # HGP2
0.029018  1.0455   3.15   # O
-0.297164  1.0455   3.15   # O
0.403898  0.19246  0.4    # HGP2
0.014391  1.0455   3.15   # O
-0.326213  1.0455   3.15   # O
0.428732  0.19246  0.4    # HGP2
0.162658  0.19246  0.4    # HGP2
