#B3LYP/TZVP OPT FREQ

Energy:   -755.49912820

0 1
    S      1.50533632      4.85621940      3.53162733
    O      0.99867993      4.69642749      5.02662060
    O      1.01125130      3.76304525      2.77125064
    H      1.73891297      4.64710146      5.62038420
    O      2.90861533      5.11496261      3.60208412
    C      0.64352818      6.31833456      3.05446982
    H     -0.41702517      6.14093214      3.15865303
    H      0.96805752      7.13743519      3.67895325
    H      0.89292126      6.50653029      2.01913658
    N      4.88726007      4.37650015      5.43142551
    H      5.62840002      5.02021810      5.74141097
    H      5.25249153      3.41413192      5.41708725
    H      4.09087521      4.43164146      6.08141228
    H      4.57727353      4.64000910      4.48579156
    O      2.83922620      4.56962791      6.75636492
    H      2.32513476      4.56486824      7.59971457


