16
Energy:   -567.15112540
    C      8.23530020      3.46503044      5.44658710
    S      6.66690610      4.28487314      5.20552961
    O      7.01246767      5.68092331      4.96879335
    O      6.07699170      3.62058997      4.04994948
    O      5.93840399      4.06165098      6.44801512
    H      8.05418560      2.41354902      5.63036422
    H      8.83465529      3.58999040      4.55362501
    H      8.73485228      3.91184839      6.29686506
    N      4.28918052      6.24900895      5.62755994
    H      3.83378910      5.80931455      4.81574734
    H      5.19062636      6.65319548      5.33811073
    H      3.68305103      6.99328701      5.99959409
    H      4.44925560      5.54023875      6.35678760
    O      3.64368819      4.71955579      3.48540208
    H      4.47278845      4.23399099      3.55616001
    H      3.18595509      4.33349695      2.73066630
