#B3LYP/TZVP OPT FREQ

Energy:   -527.43168241

0 1
    C      5.88184142      3.09572766      7.38636642
    S      6.02009274      4.48182371      6.26845089
    O      4.70116097      4.59775904      5.65903238
    O      6.37559303      5.60945734      7.12091701
    O      7.06915381      4.09824655      5.33215331
    H      6.83480762      2.94887319      7.87878788
    H      5.11352007      3.31311209      8.11756347
    H      5.61626830      2.21406788      6.81687707
    N      5.79830948      5.42287169      3.22533779
    H      5.99513997      6.42746341      3.11668498
    H      5.58466175      5.01358100      2.30523563
    H      6.62172544      4.95333765      3.62692981
    H      4.99171076      5.29710468      3.85250074
    O      5.22629869      4.29344548      0.81488901
    H      5.02206335      3.35224038      0.79023156
    H      5.16484286      4.59151465     -0.09920347


