16
Energy:   -520.63823887
    C      9.09155492      3.24795817      7.37089307
    S      8.13045560      3.61655902      5.91125876
    O      7.83438657      2.31509887      5.32563300
    O      6.95461315      4.31814597      6.41106556
    O      9.00593090      4.44501888      5.09180103
    H      9.35055529      4.17770870      7.86147686
    H      8.49759580      2.62986850      8.03225571
    H      9.98894966      2.72056553      7.07304937
    N      7.83738588      3.80639883      2.48832702
    H      8.42613164      3.75765765      1.64526419
    H      6.88371286      4.09077362      2.22490540
    H      7.80736047      2.88173737      2.93982658
    H      8.23233855      4.49542669      3.14331190
    O      5.65734282      5.57159768      4.02581518
    H      5.94346562      5.47203899      4.94036912
    H      4.74229538      5.86883558      4.07606368
