#B3LYP/TZVP OPT FREQ

Energy:   -517.25529701

0 1
    C      3.73977867      9.81875319      1.19459884
    S      4.57829754      8.61192603      2.20976639
    O      3.62505928      8.29014720      3.26437919
    O      4.85604338      7.50054764      1.30847185
    O      5.77378386      9.29625127      2.68602802
    H      4.39562927     10.10734514      0.38295582
    H      2.83357462      9.37477769      0.80229437
    H      3.49943919     10.68036154      1.80454896
    N      5.81274809      7.54022054      5.04422242
    H      4.89496222      7.45864722      5.50331618
    H      6.53965016      7.69779261      5.75593628
    H      6.01788750      6.67197063      4.53059597
    H      5.79849247      8.33247168      4.38704124
    O      3.95780600      5.55595921      3.31261928
    H      4.27738798      5.37994998      2.42094938
    H      3.74212868      6.49484713      3.32526305


