16
Energy:   -516.51212077
    C      6.55560040      5.35690352      7.90285384
    S      5.30709698      4.29947927      7.18647128
    O      4.04289842      4.84231583      7.66766086
    O      5.49394642      4.43079666      5.74686037
    O      5.60993682      2.96959627      7.70029319
    H      7.53060438      5.00901982      7.58578305
    H      6.39166653      6.37089291      7.56054694
    H      6.47508820      5.30956788      8.98148644
    N      2.90717644      4.93242257      5.03949470
    H      2.20912315      4.31637209      4.60022757
    H      2.70065150      5.91171104      4.79846827
    H      2.87266933      4.81602592      6.06175361
    H      3.84626176      4.68558122      4.69752935
    O      2.66840403      2.39667004      7.25039478
    H      3.32000018      1.80808454      7.64684990
    H      2.81272043      3.25361880      7.66632591
