#B3LYP/TZVP OPT FREQ

Energy:   -567.14865158

0 1
    C      5.08241090      6.75619403      6.66543201
    S      5.88760481      5.97694310      5.27455402
    O      5.68583146      6.90114147      4.16569975
    O      7.28051339      5.84237177      5.68239322
    O      5.19618442      4.70411241      5.11283324
    H      5.19231764      6.11872374      7.53361508
    H      5.54976446      7.71605046      6.84565162
    H      4.03393153      6.88981429      6.43089458
    N      7.48450765      3.89468335      3.60018280
    H      7.99178769      4.39400730      4.34388620
    H      7.36657646      4.51640775      2.78820792
    H      8.01989004      3.06142983      3.31945787
    H      6.55977643      3.60688850      3.94917920
    O      6.84653409      5.90947437      1.90360888
    H      6.75692833      6.46438061      1.12115315
    H      6.39333943      6.38638711      2.60742415


