#B3LYP/TZVP OPT FREQ

Energy:   -515.74952311

0 1
    C      7.77808056      1.92332716      6.95644158
    S      6.92466463      3.48594930      7.09787752
    O      6.13158725      3.36480566      8.31474457
    O      7.98705425      4.48016786      7.18444717
    O      6.12617575      3.58228332      5.88237393
    H      8.39216685      1.94116243      6.06494304
    H      8.39741443      1.78393366      7.83349221
    H      7.04400450      1.13046004      6.88813891
    N      7.57926215      6.48680079      5.38681956
    H      7.45677203      5.63834176      5.95678942
    H      7.66455516      7.30583870      6.00460124
    H      8.43153701      6.39695444      4.81646231
    H      6.76418438      6.60606827      4.76942528
    O      6.11996759      4.56100762      3.28472041
    H      5.98278157      4.15199583      4.14615900
    H      5.49837322      4.12326314      2.69295414


