16
Energy:   -514.75120339
    C      2.14883572      8.66849762     10.43979933
    S      2.90312418      7.53228391      9.28646585
    O      2.35360375      6.22913468      9.63894606
    O      2.48862816      8.01000159      7.97321971
    O      4.33478555      7.65291677      9.53163348
    H      2.51528187      9.66662258     10.23570745
    H      1.07427669      8.63215011     10.31242363
    H      2.41557206      8.37156012     11.44620432
    N      5.08046647      7.06315131      6.92727862
    H      5.75882825      7.64647323      6.41805074
    H      5.02165459      7.37958982      7.90511298
    H      4.15528582      7.14610350      6.48353106
    H      5.38609722      6.08043870      6.90241971
    O      2.31685833      4.27982695      7.64652800
    H      2.49764089      3.51692574      8.20642666
    H      2.15603881      5.00966689      8.25452294
