16
Energy:   -509.80033936
    C      4.84669533      6.59842732      6.03315423
    S      5.22063523      5.18102637      5.01273553
    O      4.96614970      5.62987144      3.64958178
    O      6.62289441      4.89033442      5.28440433
    O      4.30509410      4.14375809      5.47118145
    H      5.01413344      6.33524482      7.06992285
    H      5.49627646      7.41561182      5.74596672
    H      3.81081069      6.87385361      5.88065986
    N      6.29273205      2.07232672      5.53544624
    H      5.33548338      2.24593290      5.19886330
    H      6.86461748      1.69821536      4.76555017
    H      6.70378556      2.95450109      5.87093930
    H      6.26704180      1.39065752      6.30643218
    O      2.75973830      1.91999392      4.76158541
    H      3.14207437      2.70302612      5.17251949
    H      2.27772642      2.24505302      3.99334832
