16
Energy:   -501.71569635
    C      2.20514897      5.85876680      6.37361559
    S      1.71173470      5.64036728      4.67098386
    O      1.94450621      4.22780658      4.39730044
    O      0.30504203      6.02121979      4.64263506
    O      2.57931736      6.53649140      3.91694432
    H      2.05882671      6.89569446      6.64849838
    H      1.59577708      5.21760684      6.99795735
    H      3.24962057      5.59076830      6.47070853
    N      2.74132418      4.55232717      1.56045970
    H      3.30181859      4.77912256      0.72729581
    H      1.77538700      4.33795045      1.27627634
    H      3.14852342      3.73509000      2.03592199
    H      2.73956770      5.35714567      2.20234466
    O      0.20759839      3.01698190      2.81615804
    H     -0.19744632      2.29478873      3.30866481
    H      0.48221494      3.65688637      3.48196216
