#B3LYP/TZVP OPT FREQ

Energy:   -489.41801797

0 1
    C      4.13214183      6.24412925      1.67237801
    S      4.29785624      5.56355275      3.31538293
    O      5.46084785      4.68849085      3.23708788
    O      4.49083118      6.72300632      4.17739490
    O      3.04489870      4.85719555      3.55090500
    H      3.27867318      6.91008591      1.65556451
    H      5.03539876      6.78882504      1.42813175
    H      3.98539193      5.43167714      0.97198011
    N      4.26261317      3.23370226      5.64207769
    H      4.85588104      3.74964193      6.30660135
    H      3.35318726      3.03097802      6.07979862
    H      4.11737491      3.80395770      4.79740806
    H      4.72400946      2.35023137      5.38450273
    O      6.58239356      1.92185262      4.18031484
    H      6.68722093      2.85641779      4.38956654
    H      7.25499529      1.73226458      3.51710266


