#B3LYP/TZVP OPT FREQ

Energy:   -549.02114237

0 1
    C      6.80557877      2.55919917      5.28169790
    S      7.78509062      4.05158510      5.22294770
    O      7.54278957      4.70304887      6.50407926
    O      9.15564905      3.58687627      5.04901712
    O      7.26465342      4.79043919      4.07946466
    H      6.93722225      2.01924177      4.35255545
    H      7.14083850      1.95496900      6.11520232
    H      5.76545196      2.83011862      5.41173656
    N      9.61193008      6.48048757      5.62350227
    H      8.90685880      6.12273391      6.28277384
    H     10.31335944      7.03186840      6.13704704
    H     10.07411375      5.69004271      5.15303932
    H      9.15338833      7.07730526      4.92114886
    O      8.43453126      7.55149771      3.36344326
    H      8.15631899      8.23514772      2.74424402
    H      7.82342403      6.81945000      3.22617999


