16
Energy:   -539.04160726
    C      3.24573564      3.69980821      0.89781512
    S      4.68817740      3.54938144      1.94033339
    O      5.73936996      4.25769801      1.22082331
    O      4.30416792      4.18336166      3.19541998
    O      4.91570845      2.11405097      2.05155302
    H      2.41718259      3.19081525      1.37385684
    H      3.01539417      4.75010123      0.77112580
    H      3.46059007      3.24652098     -0.06163235
    N      5.69295779      2.26602928      4.67176880
    H      5.02935293      3.05285621      4.68862588
    H      6.65557181      2.62959490      4.64100349
    H      5.56897327      1.69435714      5.51886443
    H      5.51793317      1.68730886      3.83858138
    O      7.55239581      4.17235597      3.65349235
    H      8.44209116      4.07364217      3.29728331
    H      7.10111221      4.77188376      3.04926007
