16
Energy:   -527.46067411
    C      2.57442090      3.16505836      5.85630805
    S      3.85694848      3.50160481      4.65965843
    O      3.58535896      4.85737685      4.19864406
    O      5.10186575      3.37242759      5.40673995
    O      3.67934484      2.48392511      3.63150538
    H      2.71397299      2.16399493      6.24436335
    H      2.64685096      3.88943689      6.65771460
    H      1.61190477      3.24482974      5.36705310
    N      6.31102704      5.40624198      3.92063261
    H      6.79834538      6.22337854      4.31377492
    H      6.36705285      4.62124425      4.58425288
    H      5.32354303      5.64370055      3.75258214
    H      6.75516689      5.13664458      3.03192049
    O      7.56679977      7.56677026      5.00147911
    H      7.23929278      7.91150583      5.83938343
    H      8.30873271      8.13409639      4.76512412
