16
Energy:   -527.44230257
    C      1.91280688      5.89368193      1.85329016
    S      3.25612663      4.71664029      1.86655102
    O      3.00319573      3.85463222      0.71877885
    O      4.45972673      5.52880460      1.73859603
    O      3.13887940      4.03651321      3.15029319
    H      2.03611117      6.57249640      2.68767417
    H      1.93861743      6.44133767      0.91967899
    H      0.97758621      5.35593746      1.94474701
    N      5.91350837      3.79500294      3.37790303
    H      6.35164353      2.98024954      2.92627632
    H      6.47199909      4.07545175      4.19594263
    H      5.86934136      4.57586118      2.70852879
    H      4.96104949      3.54844927      3.68086439
    O      7.35666830      4.57607435      5.55052475
    H      7.04520341      5.33564088      6.05474238
    H      8.15836865      4.28447484      5.99822262
