16
Energy:   -683.91038861
    S      7.60401276      0.81206032      2.82159770
    O      7.91123656      0.09070407      1.44228710
    O      7.63993487      2.21626191      2.61124105
    H      8.68105270     -0.46025265      1.52452473
    O      8.45114430      0.20327519      3.79773959
    C      5.93162097      0.31664041      3.07818713
    H      5.33960654      0.66151856      2.24291642
    H      5.89347049     -0.75874799      3.16934093
    H      5.60080844      0.78855939      3.99327456
    N      6.23697034      4.26572180      4.02723695
    H      6.86292985      3.60346488      3.54833961
    H      5.78207527      4.87254851      3.33111625
    H      5.51913417      3.74359885      4.54863033
    H      6.78374208      4.84327498      4.68086161
    O      4.22375052      3.05698022      4.95730807
    H      3.31676158      3.19758626      5.32220846
