#B3LYP/TZVP OPT FREQ

Energy:   -683.72121910

0 1
    S      6.70083945      5.96003197      4.86436258
    O      5.51069357      6.37955291      3.90270049
    O      7.47491308      4.96382383      4.21190430
    H      4.67504752      6.21937188      4.32575005
    O      6.12003059      5.70412215      6.14431392
    C      7.62378758      7.46151477      4.90783046
    H      7.92040245      7.71124741      3.89948904
    H      7.01131463      8.23835555      5.34098169
    H      8.49535823      7.27715484      5.52094176
    N      3.79684994      5.80834288      7.75710075
    H      4.70136135      5.78128673      7.26630622
    H      3.03715340      5.91620774      7.07082199
    H      3.66428631      4.93206442      8.28085179
    H      3.78459870      6.60381264      8.41042301
    O      2.08282722      6.34699113      6.05484841
    H      1.13539247      6.53947969      5.85269291


