16
Energy:   -681.23942902
    S      5.36756746      2.99218070      2.07981271
    O      3.79635070      2.82918652      1.93165798
    O      5.67401231      4.37875583      2.10850804
    H      3.59010389      2.34059296      1.14319631
    O      5.96033223      2.13879977      1.09926435
    C      5.60994897      2.32127524      3.69205040
    H      5.02484805      2.89669049      4.39465513
    H      5.31161631      1.28338508      3.68953503
    H      6.66384720      2.41423891      3.91607212
    N      7.06661702      6.10485014      3.96628006
    H      7.11681853      5.49901246      4.79705845
    H      7.06146586      7.09127163      4.26072581
    H      7.88356831      5.93059350      3.36463446
    H      6.20461539      5.89852296      3.44270152
    O      7.09195967      4.57681568      6.01903312
    H      7.19228967      4.50892116      6.99927570
