#B3LYP/TZVP OPT FREQ

Energy:   -679.22978405

0 1
    S      4.87203419      6.82367221      5.75823588
    O      4.97435886      6.95669004      4.18055564
    O      3.53269468      6.49136578      6.09448662
    H      5.26835707      7.82856517      3.94321194
    O      5.48930771      7.98956552      6.30666124
    C      5.89454774      5.41325938      6.02911407
    H      5.48504237      4.58109900      5.47511620
    H      6.90038088      5.64142613      5.70901359
    H      5.87011911      5.20638683      7.09030983
    N      3.22499725      4.35746697      3.73325968
    H      2.51105277      3.62029734      3.81460102
    H      3.09979364      4.85973819      2.84342830
    H      3.12711333      5.01792578      4.51681893
    H      4.16202927      3.93190657      3.75819047
    O      5.45450429      3.33048022      3.74626683
    H      6.21893641      2.70740299      3.69177291


