16
Energy:   -677.81490062
    S      2.29672502      1.85635465      6.68342300
    O      2.49388885      0.85935590      7.90176570
    O      2.49816734      3.18210806      7.15152697
    H      1.70183838      0.35389702      8.04354232
    O      1.06942919      1.48947871      6.05076894
    C      3.66232585      1.39680669      5.66748827
    H      4.57286918      1.54140132      6.23060675
    H      3.54580399      0.36614986      5.36683257
    H      3.64633298      2.04936196      4.80525553
    N      3.94027121      5.52732774      8.00471270
    H      3.41151017      4.75300982      7.57974714
    H      4.08902351      5.33315357      9.00467337
    H      4.85106824      5.61994728      7.53394461
    H      3.40948291      6.40320028      7.90048567
    O      6.16239449      5.57826854      6.92889876
    H      7.10435494      5.55273006      6.63290962
