#B3LYP/TZVP OPT FREQ

Energy:   -676.42341911

0 1
    S      5.08999514      3.67309997      0.83352696
    O      5.26783349      5.21252163      0.49324251
    O      6.37818928      3.09946235      1.00328620
    H      4.87419414      5.40999240     -0.34877090
    O      4.18242597      3.14367597     -0.13452914
    C      4.30187456      3.78042183      2.40690589
    H      4.95059052      4.32275670      3.07931921
    H      3.35111530      4.27919133      2.29067112
    H      4.16025424      2.76717844      2.75734985
    N      7.89522235      0.96051974      3.21890913
    H      7.96838640      0.15769769      2.57869355
    H      8.09755183      1.82906075      2.70466065
    H      6.94237915      1.00498013      3.60603354
    H      8.57257202      0.85034038      3.98624878
    O      5.55048330      1.39504995      4.06653824
    H      4.78751596      1.64287134      4.64274713


