#B3LYP/TZVP OPT FREQ

Energy:   -672.13755638

0 1
    S      8.90013243      8.41548263      5.02977872
    O     10.40118904      8.11291583      4.61442176
    O      8.07930300      7.36334650      4.54339301
    H     10.74226268      8.81987619      4.07887620
    O      8.63912742      9.76990248      4.65758598
    C      9.01854650      8.28188013      6.78371765
    H      9.36708981      7.28929352      7.02945851
    H      9.69730407      9.03825293      7.14897514
    H      8.02425684      8.43933836      7.17884348
    N      5.68506671      5.02742405      5.61305291
    H      5.94661745      4.13381550      6.05215103
    H      4.74748876      4.94354102      5.19632347
    H      5.67881637      5.77081217      6.32515348
    H      6.36734426      5.26152751      4.87858363
    O      6.05472094      6.71937904      7.34369020
    H      5.78463051      7.30240086      8.09381552


