16
Energy:   -709.99429771
    S      2.65752127      6.66476683      2.62648584
    O      1.50607163      6.78816030      3.71100269
    O      3.87986289      6.39705069      3.29844677
    H      1.09740525      7.64448154      3.65963187
    O      2.53480653      7.80182915      1.77025308
    C      2.14365245      5.20845869      1.77602789
    H      2.09805126      4.39493089      2.48538834
    H      1.18056785      5.38794363      1.32162951
    H      2.88990956      5.00609520      1.01993344
    N      5.68673822      4.23593824      3.24400427
    H      6.59537063      4.40399411      2.79024601
    H      5.23520879      5.13734527      3.45218385
    H      5.08466318      3.68797677      2.61392803
    H      5.83171027      3.71443680      4.11965921
    O      4.16873247      3.03573126      1.74751309
    H      3.77961472      2.33598090      1.16916362
