16
Energy:   -669.18856072
    S      5.31773331      3.34406002      5.45617326
    O      5.05137291      1.92020283      6.10341502
    O      6.68283547      3.68032148      5.65803159
    H      4.37784967      1.98395064      6.77067500
    O      4.28115025      4.20673523      5.92775700
    C      5.06794330      2.97393425      3.75065716
    H      5.76832891      2.20430665      3.46042872
    H      4.04752005      2.65109038      3.60666784
    H      5.26084216      3.88438788      3.19984534
    N      2.10904544      6.56177250      4.87966901
    H      2.63008194      6.16772436      4.08405652
    H      2.73763198      6.65389021      5.68969708
    H      1.74109896      7.48851550      4.62371001
    H      1.32736888      5.93695994      5.12121241
    O      3.59885423      5.62365133      3.11847910
    H      4.04285432      5.30708017      2.29495138
