16
Energy:   -654.36763982
    S      3.59690503      2.44608414      6.31637974
    O      4.07120726      3.73744820      7.10673111
    O      3.50693225      1.36609050      7.23444351
    H      4.88454953      4.06559759      6.74104605
    O      4.42975020      2.34703070      5.15980656
    C      1.96854765      2.93466649      5.84956841
    H      1.40536864      3.15181436      6.74554574
    H      2.03182275      3.79957239      5.20601676
    H      1.52850906      2.09905719      5.32264090
    N      8.09832234      5.47113696      5.68656098
    H      7.07909174      5.37507167      5.57842846
    H      8.35673341      5.30138866      6.66847821
    H      8.57352783      4.78562105      5.08323696
    H      8.38393639      6.42246647      5.41610031
    O      5.45585648      5.35641372      5.52990453
    H      4.62278087      5.71828919      5.14185498
