16
Energy:   -650.33602802
    S      3.05689213      4.95345243      2.06364452
    O      3.15320439      6.48494536      1.66054108
    O      3.37265130      4.16856810      0.92277854
    H      2.31774556      6.91476396      1.80265982
    O      1.80705763      4.78637539      2.73528666
    C      4.38432152      4.84067647      3.21836792
    H      5.29931560      5.12247215      2.71789194
    H      4.17822255      5.49080035      4.05567721
    H      4.43443169      3.80938968      3.54002920
    N      2.74033310      4.11974410      7.92117495
    H      2.26564364      4.97320821      8.24678383
    H      3.67218003      4.36289182      7.55745434
    H      2.83950248      3.46143271      8.70637794
    H      2.18400624      3.68144368      7.17408367
    O      4.81510761      4.72627874      6.74841094
    H      5.75635544      5.00664669      6.64354136
