16
Energy:   -641.74430959
    S      4.12890002      7.91790612      3.36896398
    O      3.73017687      8.64775191      2.01782224
    O      3.11531315      6.97455645      3.68527948
    H      3.65607230      9.58430290      2.16034935
    O      4.47971513      8.94433709      4.29873406
    C      5.57381121      7.05028882      2.85161963
    H      5.30522361      6.38968880      2.04009792
    H      6.32243290      7.76551856      2.54463972
    H      5.91896147      6.47892729      3.70247024
    N      9.49557028      5.99966992      6.48529429
    H      9.03780846      5.74343337      5.59954650
    H     10.34156606      5.42708532      6.61253510
    H      9.75553777      6.99546694      6.46168479
    H      8.84736885      5.83269406      7.26741075
    O      7.99255255      5.47547210      4.60147238
    H      7.93287971      5.49860627      3.61584809
