#B3LYP/TZVP OPT FREQ

Energy:   -706.73553362

0 1
    S      6.24468303      6.27171470      4.38611840
    O      4.86480680      6.85158204      4.91236404
    O      7.27753740      7.17959109      4.74149810
    H      4.26413870      6.97811290      4.18702205
    O      6.03904204      5.90598764      3.02044652
    C      6.38787714      4.82597328      5.38486786
    H      6.38651110      5.12465716      6.42308039
    H      5.56340660      4.16391150      5.16544313
    H      7.32951726      4.35946073      5.12950657
    N      4.14754202      4.28074048      1.74039561
    H      3.44541334      4.68053317      1.10248236
    H      4.39296860      3.33081639      1.42868706
    H      4.99050499      4.87163104      1.73665839
    H      3.76128114      4.23998131      2.69375463
    O      3.41183451      4.33610127      4.07022120
    H      2.89551020      4.34113134      4.91220410


