16
Energy:   -698.97861973
    S      5.35366976      5.63580370      4.18178324
    O      6.91680089      5.48632430      4.40875460
    O      4.95632996      4.71503735      3.17598363
    H      7.35356260      6.31286440      4.23844930
    O      5.09554112      7.03261733      4.02886015
    C      4.74739906      5.07527657      5.73947976
    H      5.08929486      4.06257606      5.89646428
    H      5.10631389      5.73574937      6.51483807
    H      3.66767830      5.10296923      5.68502198
    N      3.08388231      2.59053899      2.78822850
    H      2.95260057      2.42842755      3.79631441
    H      3.84756399      3.26602572      2.64589028
    H      3.32112316      1.70192437      2.32580766
    H      2.21424151      2.96577831      2.38490166
    O      3.04821202      2.27879984      5.21096972
    H      3.04464381      2.25410680      6.19835455
