#B3LYP/TZVP OPT FREQ

Energy:   -693.50067566

0 1
    S      4.09242927      4.75996472      2.83759376
    O      5.47761520      5.37393443      3.30827429
    O      4.35753765      3.62674164      2.02344055
    H      5.55322935      6.27500436      3.01623199
    O      3.31401908      5.84751606      2.33518573
    C      3.44178040      4.21268655      4.38204058
    H      4.13169909      3.50135129      4.81228881
    H      3.30435669      5.06693248      5.02826292
    H      2.49349498      3.73677603      4.17277187
    N      3.71143250      8.70457984      1.67245154
    H      3.48055328      8.71380898      0.66927568
    H      3.33243364      7.85022557      2.10394990
    H      4.73403509      8.72348520      1.78940763
    H      3.29870799      9.53079962      2.12717295
    O      6.10592599      8.60509120      2.37755560
    H      6.92683516      9.03494582      2.71943925


