16
Energy:   -684.02438494
    S      0.86515829      8.56120351      2.80619823
    O     -0.65252523      9.01868312      2.73846232
    O      1.57153232      9.19207169      1.74772598
    H     -1.21851636      8.26294809      2.63144912
    O      0.85700709      7.13751025      2.92509002
    C      1.35392617      9.29330570      4.33371440
    H      1.20341226     10.36095889      4.26617605
    H      0.76820998      8.86375100      5.13286645
    H      2.40346650      9.06971920      4.46789199
    N      2.17493353      5.13213213      4.56251957
    H      1.92804097      4.13927400      4.67666417
    H      3.13284080      5.20724364      4.19302788
    H      1.51802139      5.57576592      3.90570323
    H      2.12083095      5.60624497      5.47468301
    O      2.39566132      6.38426392      6.68075993
    H      2.71480057      6.26139811      7.60736957
