#B3LYP/TZVP OPT FREQ

Energy:   -732.77955795

0 1
    O      2.58604274      8.01721700      6.72490029
    H      1.68165267      8.41082091      6.67288250
    O      4.71665442      7.05518005      6.71402469
    H      5.37452266      7.74865259      6.96613766
    H      4.71952151      6.29455918      7.34549251
    H      3.81039270      7.43157127      6.59261815


