6
Energy:   -732.77955795
    O     -1.22875504      0.52421683     -0.11110901
    H     -2.13314511      0.91782074     -0.16312680
    O      0.90185664     -0.43782012     -0.12198462
    H      1.55972488      0.25565243      0.13012836
    H      0.90472373     -1.19844098      0.50948321
    H     -0.00440508     -0.06142890     -0.24339115
