#B3LYP/TZVP OPT FREQ

Energy:   -732.64928492

0 1
    O      3.10655564      5.11433758      5.45073026
    H      2.93308519      5.05843496      6.42146925
    O      3.64531168      5.28804553      3.18256881
    H      3.04580080      5.95577552      2.76786517
    H      3.53893731      5.25388369      4.16482204
    H      3.54743081      4.39535043      2.76876330


