6
Energy:   -732.63129018
    O     -0.30657970      0.82727865     -1.00943671
    H     -0.51455435      1.45822483     -1.74032982
    O      0.10392524     -0.75831498      0.65860118
    H     -0.20982984     -0.39367969      1.52222992
    H     -0.14566402     -0.17758211     -0.10150308
    H      1.07270266     -0.95592671      0.67043851
