#B3LYP/TZVP OPT FREQ

Energy:   -732.62001248

0 1
    O      2.53233314      5.30904740      6.12415901
    H      2.66748179      5.18678876      7.09490046
    O      2.11263975      5.68889419      3.85599851
    H      2.19556990      5.61403199      4.83822760
    H      2.93388241      6.05058496      3.44121636
    H      1.83444241      4.83511692      3.44200477


