6
Energy:   -732.60201619
    O      0.12111842      1.05613724      0.81692679
    H      0.18822571      1.82238993      1.43652724
    O      0.06207027     -0.69972008     -0.72529222
    H      0.18064435      0.09345051     -0.14729885
    H      0.28896113     -1.53876877     -0.25431263
    H     -0.84101988     -0.73348882     -1.12655033
