 8
energy =  Electronic_Energy: -227.846940538
C  1.083885   -0.891056  -0.000000
C  0.000000   0.155419   -0.000000
O  -1.242583  -0.420220  0.000000
O  0.162345   1.364854   -0.000000
H  -1.876867  0.318655   0.000000
H  2.063267   -0.400287  -0.000000
H  0.976095   -1.530811  0.888237
H  0.976095   -1.530811  -0.888237
all32_cgenff q  epsilon (kJ/mol) sigma (AA)
-0.054941 0.30     3.6    # C 0.2-0.5 3.5-3.6 
0.283352  0.30     3.6    # C 0.2-0.5 3.5-3.6 
-0.217030 1.05     3.15   # O 0.8-1 3.15
-0.340873 1.05     3.15   # O 0.8-1 3.15
0.183394  0.19     0.4    # H 0.1-0.2 0.4-3 | OH 0.16 0.4 | CH 0.12 2.4
0.047952  0.12     2.4    # H 0.1-0.2 0.4-3 | OH 0.16 0.4 | CH 0.12 2.4
0.049073  0.12     2.4    # H 0.1-0.2 0.4-3 | OH 0.16 0.4 | CH 0.12 2.4
0.049073  0.12     2.4    # H 0.1-0.2 0.4-3 | OH 0.16 0.4 | CH 0.12 2.4
