 7
energy =  Electronic_Energy: -227.272246951
C  0.042010   -1.351898  0.000000
C  0.000000   0.204234   -0.000000
O  -1.167342  0.710013   -0.000000
O  1.123942   0.799932   0.000000
H  1.077486   -1.727990  0.000000
H  -0.491173  -1.732794  0.888319
H  -0.491173  -1.732794  -0.888319
all32_cgenff q  epsilon (kJ/mol) sigma (AA)
-0.105099  0.30     3.6    # C 0.2-0.5 3.5-3.6 
0.170913   0.30     3.6    # C 0.2-0.5 3.5-3.6 
-0.536152  1.05     3.15   # O 0.8-1 3.15
-0.530997  1.05     3.15   # O 0.8-1 3.15
-0.003248  0.12     2.4    # H 0.1-0.2 0.4-3 | OH 0.16 0.4 | CH 0.12 2.4
0.002291   0.12     2.4    # H 0.1-0.2 0.4-3 | OH 0.16 0.4 | CH 0.12 2.4
0.002291   0.12     2.4    # H 0.1-0.2 0.4-3 | OH 0.16 0.4 | CH 0.12 2.4
