 14
 Electronic_Energy: -189.876616234
C	0.552054 0.531898 0.000004
N	1.912426 -0.120090 -0.000005
C	-0.552032 -0.531969 0.000000
N	-1.912444 0.120148 -0.000003
H	2.649277 0.598463 0.000195
H	2.076933 -0.704348 -0.829294
H	0.510954 1.161549 0.888217
H	0.510933 1.161627 -0.888172
H	-0.511035 -1.161611 0.888230
H	-0.510995 -1.161638 -0.888211
H	-2.076880 0.704438 0.829264
H	-2.649236 -0.598441 -0.000133
H	-2.076819 0.704652 -0.829137
H	2.076851 -0.704670 0.829070
all32_cgenff q  epsilon (kJ/mol) sigma (AA)
-0.141034 0.23012 3.87541
-0.569679 0.8368 3.29633
-0.140989 0.23012 3.87541
-0.569692 0.8368 3.29633
0.434954 0.192464 0.400014
0.425840 0.192464 0.400014
0.212032 0.14644 2.38761
0.212043 0.14644 2.38761
0.212048 0.14644 2.38761
0.212038 0.14644 2.38761
0.425833 0.192464 0.400014
0.434946 0.192464 0.400014
0.425827 0.192464 0.400014
0.425834 0.192464 0.400014
