 14
 Electronic_Energy: -189.876614669
C	-0.551777 0.532088 0.000052
C	0.551777 -0.532088 -0.000052
N	1.912857 0.120122 -0.000037
N	-1.912857 -0.120122 0.000037
H	-2.649315 0.598729 0.000281
H	-2.077003 -0.704857 0.828959
H	-0.510968 1.161466 0.888473
H	-0.511000 1.161695 -0.888219
H	0.510968 -1.161466 -0.888474
H	0.511000 -1.161695 0.888219
H	2.077003 0.704858 -0.828959
H	2.649315 -0.598728 -0.000282
H	-2.077525 -0.703941 -0.829476
H	2.077525 0.703941 0.829476
all32_cgenff q  epsilon (kJ/mol) sigma (AA)
-0.141037 0.23012 3.87541
-0.141036 0.23012 3.87541
-0.569657 0.8368 3.29633
-0.569657 0.8368 3.29633
0.434909 0.192464 0.400014
0.425779 0.192464 0.400014
0.212102 0.14644 2.38761
0.212072 0.14644 2.38761
0.212102 0.14644 2.38761
0.212072 0.14644 2.38761
0.425779 0.192464 0.400014
0.434909 0.192464 0.400014
0.425833 0.192464 0.400014
0.425833 0.192464 0.400014
