 13
 Electronic_Energy: -189.675966648
C	0.680246 0.729588 -0.250280
N	1.312229 -0.585816 0.111679
C	-0.761070 0.660949 0.259856
N	-1.298695 -0.646466 -0.135071
H	2.106428 -0.836494 -0.478212
H	0.523779 -1.264789 -0.013612
H	1.255802 1.543448 0.182293
H	0.711072 0.798102 -1.335893
H	-1.313545 1.516265 -0.130818
H	-0.772676 0.728831 1.348419
H	-1.722467 -0.618477 -1.058121
H	-2.016426 -0.967424 0.506049
H	1.618245 -0.616711 1.086181
all32_cgenff q  epsilon (kJ/mol) sigma (AA)
-0.125891 0.23012 3.87541
-0.586629 0.8368 3.29633
-0.103392 0.234304 3.58141
-0.749134 0.25104 3.54578
0.391301 0.192464 0.400014
0.442613 0.192464 0.400014
0.182803 0.14644 2.38761
0.172813 0.14644 2.38761
0.166812 0.14644 2.38761
0.146356 0.14644 2.38761
0.332392 0.04184 1.55907
0.341542 0.04184 1.55907
0.388414 0.192464 0.400014
