 8
 Electronic_Energy: -95.5890388021
C	-0.799431 0.000009 -0.000004
N	0.708075 0.000012 -0.000027
H	1.083114 -0.922953 -0.232965
H	1.083385 0.663229 -0.682645
H	-1.136467 -0.717661 0.739132
H	-1.136607 0.998908 0.251943
H	-1.136544 -0.281272 -0.991058
H	1.083183 0.259612 0.915809
all32_cgenff q  epsilon (kJ/mol) sigma (AA)
-0.221657 0.322168 3.94668
-0.586186 0.8368 3.29633
0.406115 0.192464 0.400014
0.406111 0.192464 0.400014
0.196495 0.100416 2.38761
0.196504 0.100416 2.38761
0.196503 0.100416 2.38761
0.406115 0.192464 0.400014
