#B3LYP/TZVP OPT FREQ

Energy:    -96.52668032

0 1
    S      3.69071889      8.71904064      5.91540608
    O      2.91598094      8.26942440      7.22493476
    O      3.06087052      9.88251041      5.39873252
    H      2.58135350      7.38613989      7.12117455
    O      3.83344213      7.55126393      5.10483109
    C      5.24932584      9.17238778      6.60344245
    H      5.08906285      9.95674047      7.32884291
    H      5.69929439      8.30245669      7.05838519
    H      5.85981466      9.53443717      5.78750551
    N      2.63933532      4.95483720      4.31901216
    H      3.33765200      4.28121245      4.00630254
    H      3.13568376      5.83886131      4.42551986
    H      2.00766168      5.08538794      3.52961416
    O      1.96360617      5.71778303      6.91950658
    H      2.19338631      5.41274600      6.03500638
    H      1.35337321      5.05773270      7.26611358


