16
Energy:    -79.28481340
    S      6.00962868      5.72398620      5.21911216
    O      7.17189299      6.71811367      5.64112077
    O      6.02016337      4.61764534      6.10974192
    H      7.78143073      6.83454630      4.92150947
    O      6.13712470      5.52205232      3.81054138
    C      4.59509539      6.71870696      5.56233147
    H      4.60836721      6.98441268      6.60938615
    H      4.62162586      7.59652700      4.93387877
    H      3.72531892      6.11619024      5.33874264
    N      3.14090022      3.75522024      6.49944031
    H      4.15888969      3.78444633      6.54468489
    H      2.91264937      2.94926089      5.91846239
    H      2.82876321      3.51582412      7.43989992
    O      8.56496362      6.76633145      3.22560730
    H      7.80126771      6.23129927      2.98333426
    H      9.17952578      6.68165766      2.48849753
