#B3LYP/TZVP OPT FREQ

Energy:    -78.99086912

0 1
    S      5.79685691      5.75440024      5.23270095
    O      7.20723851      5.92638320      5.93873540
    O      4.86402669      5.29461449      6.20004126
    H      7.85588733      5.37699688      5.51404423
    O      6.02795388      5.00834500      4.03641505
    C      5.42811611      7.43254610      4.83769461
    H      5.41125234      8.00492581      5.75377118
    H      6.17694768      7.80581182      4.15494380
    H      4.45168432      7.43885621      4.37286066
    N      2.38767969      3.98583211      4.96855953
    H      1.50314219      4.21965808      5.41814003
    H      3.11557906      4.30995030      5.60441658
    H      2.44337536      2.96800329      4.97981804
    O      3.42821137      5.58453367      2.90592786
    H      4.27065968      5.12671725      2.81173614
    H      2.90554849      5.03639138      3.50136942


