#B3LYP/TZVP OPT FREQ

Energy:    -77.10945414

0 1
    S      1.39420455      5.99609554      3.71126384
    O      1.56265630      5.53920133      5.22126739
    O      0.02782015      6.31328606      3.48831473
    H      1.90984938      4.65551540      5.25985963
    O      2.04950597      5.01024976      2.91139365
    C      2.33187988      7.48903040      3.72041574
    H      1.90129868      8.16017400      4.44929521
    H      3.35947160      7.25742953      3.95840940
    H      2.25684349      7.91348884      2.72858206
    N      4.52629527      3.44880237      2.51634131
    H      4.34764482      2.44524778      2.52922519
    H      4.95474655      3.64211583      1.61176202
    H      3.60912292      3.89292025      2.48880088
    O      4.70282926      5.14762418      4.73572011
    H      5.51583845      4.90132078      5.19018440
    H      4.65936076      4.57430706      3.96267091


