16
Energy:    -77.10943583
    S      1.29596954      9.86256469      4.97796573
    O      2.36634879      8.84403210      4.39993573
    O      1.65711137     11.17358426      4.56793316
    H      2.78342255      8.36876204      5.10923191
    O      1.14495260      9.55229674      6.36433936
    C     -0.13959748      9.36133361      4.08572807
    H      0.06038178      9.46291938      3.02894626
    H     -0.37560729      8.33978350      4.34449331
    H     -0.94111650     10.02426890      4.38172390
    N      0.67256925      7.40903491      8.34220496
    H      0.83511695      8.26861029      7.81883873
    H      1.41926266      7.36108482      9.03455893
    H     -0.18525196      7.56463534      8.87053777
    O      0.74962649      6.41850509      5.72386257
    H      0.70174034      6.75204356      6.62644005
    H      0.75533732      5.45868349      5.80691063
