16
Energy:    -76.06989430
    S      7.51961560      3.43016881      5.62489881
    O      7.52076689      1.93751115      5.08711556
    O      8.61770200      3.58832545      6.51175573
    H      6.70475256      1.50654636      5.31366176
    O      6.18795416      3.70450941      6.06366891
    C      7.85905364      4.30918054      4.13483388
    H      8.80620726      3.96769056      3.74319143
    H      7.05743844      4.13389199      3.43275719
    H      7.91590512      5.35751355      4.39424720
    N      4.14263353      5.84804315      6.14041292
    H      4.24561508      6.35598915      7.01824517
    H      4.77491310      5.05108863      6.20591362
    H      3.20145467      5.45669948      6.15580014
    O      5.63169583      6.54256144      3.87715744
    H      5.12114335      6.29094313      4.65446787
    H      5.17869285      7.31066788      3.51248237
