16
Energy:    -90.44792478
    S      4.98007381      3.00313832     -0.15662123
    O      6.15193228      1.93444442     -0.19998159
    O      5.45450108      4.21264416     -0.73049999
    H      6.35929301      1.63910383      0.67905691
    O      4.46215288      2.98660741      1.17476482
    C      3.82653762      2.26071522     -1.26402156
    H      4.30134950      2.14539098     -2.22753242
    H      3.51675200      1.30745704     -0.86208079
    H      2.98405273      2.93463307     -1.33874362
    N      6.83961873      0.95613953      2.40647219
    H      6.81074367     -0.04028732      2.61978784
    H      6.15115606      1.39064655      3.02000873
    H      7.74787198      1.28316640      2.73409047
    O      4.78354161      2.38373628      3.85116074
    H      4.60831288      2.61832649      2.93331030
    H      4.31850043      3.04424793      4.37618280
