16
Energy:    -76.06987521
    S      1.52347344      4.96568670      5.32627519
    O      1.33643075      3.72620008      6.29886298
    O      0.28061795      5.64511115      5.22132239
    H      1.54729511      2.91838389      5.84509823
    O      2.18063195      4.47168021      4.15785555
    C      2.63481321      5.95323177      6.27382568
    H      2.16723708      6.18414145      7.21995066
    H      3.55697616      5.40894532      6.41379871
    H      2.80907401      6.85942512      5.70993187
    N      4.22635924      5.19555629      2.13920089
    H      3.48435329      4.85433307      2.74928095
    H      4.67435617      4.36376352      1.75628600
    H      3.75511346      5.64267533      1.35356976
    O      5.05569551      6.67066573      4.36591194
    H      4.76549566      6.15342712      3.60667853
    H      5.87417545      7.09547112      4.08695303
