16
Energy:    -75.40696802
    S      3.03007890      3.39012481      2.89874366
    O      2.85218773      1.94567773      2.26694749
    O      3.47579831      3.24169977      4.23912669
    H      1.95432174      1.82045555      1.98218565
    O      1.83199215      4.11238591      2.60886228
    C      4.36059570      4.00742904      1.92056483
    H      5.20942862      3.35029700      2.04205296
    H      4.04559002      4.05565112      0.88873599
    H      4.59371115      4.99509797      2.29432507
    N      5.61707076      3.84895258      6.21821262
    H      5.92606522      2.99323001      6.67806596
    H      4.81844631      3.58166661      5.64378988
    H      5.24028505      4.44031511      6.95816341
    O      6.71568606      4.85811729      3.85191058
    H      7.56319331      5.23184241      4.11695413
    H      6.32957210      4.50365378      4.66027852
