16
Energy:    -74.62588855
    S      1.99154742      7.15000041      0.86695837
    O      1.20616852      8.12322592     -0.10938744
    O      3.36384408      7.51609456      0.85698817
    H      0.77806632      7.62429037     -0.79548148
    O      1.59317151      5.82116525      0.52549399
    C      1.28920495      7.61312916      2.41628084
    H      1.47513923      8.66520084      2.57650820
    H      0.23081497      7.39914421      2.40060355
    H      1.78581170      7.02411694      3.17521153
    N      4.09334511      4.24240909      1.25605250
    H      4.46018603      3.45357121      0.72467097
    H      4.67342587      5.04119323      1.00178000
    H      3.17140987      4.43437501      0.86568242
    O      3.12762397      5.04272205      3.75159292
    H      3.46870288      4.74773251      2.90022141
    H      3.50785950      4.44089310      4.40075389
