#B3LYP/TZVP OPT FREQ

Energy:    -74.62587013

0 1
    S      3.95769725      2.30555033      1.67616960
    O      3.41325472      1.37280295      0.51392880
    O      3.50411378      3.63024609      1.43791427
    H      4.13772769      0.96232122      0.05613312
    O      5.35370105      2.02866304      1.80111357
    C      3.08340339      1.64318145      3.05640546
    H      2.02371900      1.72790937      2.86407929
    H      3.37611221      0.61319973      3.19670479
    H      3.35764004      2.23783415      3.91705165
    N      6.40961948      4.71387138      2.77668407
    H      6.42730368      3.75747505      2.42426793
    H      7.29426943      5.13112862      2.48946437
    H      5.68935474      5.19401304      2.23827255
    O      4.93664470      3.80581720      4.96908498
    H      5.45895728      4.12940746      4.22701624
    H      5.26738029      4.28033012      5.73956442


