#B3LYP/TZVP OPT FREQ

Energy:    -73.72806099

0 1
    S      3.02946848      3.91879335      7.00443207
    O      3.41151051      2.59511167      7.79129275
    O      2.06011995      4.62759584      7.76290744
    H      3.22345460      1.83098941      7.25867152
    O      2.75264374      3.52761026      5.65853162
    C      4.56019317      4.79030626      7.07873199
    H      4.82112540      4.93759575      8.11667195
    H      5.31592418      4.21844244      6.56098001
    H      4.40336386      5.74322046      6.59202001
    N      5.51212985      5.63822754      4.03774736
    H      5.41633824      6.58681484      3.67690127
    H      4.74117990      5.10864828      3.63230160
    H      6.35926212      5.26415519      3.61155367
    O      3.27024472      4.11692372      3.00590294
    H      3.05744762      3.86496759      3.91112259
    H      2.50080734      3.86494212      2.48373582


