16
Energy:    -73.72803550
    S      2.28642228      6.36365810      3.47760800
    O      0.85507084      7.00852729      3.70698937
    O      2.78572645      6.81330856      2.22627581
    H      0.20109225      6.32706200      3.81115411
    O      2.15188015      4.96667030      3.74486762
    C      3.20041156      7.14162959      4.76894733
    H      3.15524386      8.21135175      4.62488635
    H      2.77793813      6.85518808      5.72062592
    H      4.22107086      6.79413378      4.68509799
    N      4.66990245      4.85306540      6.63329837
    H      4.19246786      4.10998438      6.12428893
    H      4.42781783      4.71653124      7.61409281
    H      5.66478339      4.64256827      6.56183399
    O      3.27118141      2.82982284      5.09863588
    H      2.83763553      3.53731329      4.60906225
    H      3.08850303      2.02593451      4.60005864
