16
Energy:    -90.44790107
    S      4.80914564      6.65719184      6.40820522
    O      4.36299976      5.13513413      6.44736167
    O      3.93024290      7.40376761      7.23734757
    H      4.14931250      4.83327392      5.57206093
    O      4.97170717      6.99917999      5.03062690
    C      6.38311864      6.55137507      7.19534250
    H      6.24455463      6.14349046      8.18606413
    H      7.03249018      5.92636811      6.60044118
    H      6.77316524      7.55827457      7.25489490
    N      3.71905272      4.11484790      3.84583508
    H      3.95285757      4.88277205      3.21747882
    H      2.72283260      3.94314954      3.71442189
    H      4.19332903      3.29481997      3.46924452
    O      4.43471663      6.49360715      2.36869579
    H      4.65975885      6.72447705      3.27657365
    H      4.38690884      7.33225521      1.89692153
