#B3LYP/TZVP OPT FREQ

Energy:    -87.53811373

0 1
    S      3.41770294      3.22120414      0.47309721
    O      3.27423081      4.50838816      1.38950982
    O      2.18053755      2.52359818      0.48259315
    H      3.91136767      4.48222188      2.09399912
    O      4.62226266      2.56659723      0.87512938
    C      3.63586483      3.97352003     -1.10633291
    H      2.77193269      4.58721314     -1.31633583
    H      4.54166781      4.56138625     -1.09372563
    H      3.71177782      3.17211392     -1.82849281
    N      6.67976057      3.25210293      5.51286699
    H      5.97044555      3.05263063      6.21734325
    H      7.22161430      4.03399634      5.87925683
    H      7.31010055      2.45096421      5.52011566
    O      5.32205943      4.03071195      3.18182667
    H      5.78754816      3.82200519      3.99910804
    H      5.48442600      3.28189125      2.59779606


