#B3LYP/TZVP OPT FREQ

Energy:    -87.51504183

0 1
    S      5.67093315      3.80478366      4.15767303
    O      6.46951420      5.17215706      4.05869178
    O      4.34629711      4.02436251      3.69458887
    H      6.78846024      5.42862685      4.91626388
    O      5.90429647      3.29031893      5.46991225
    C      6.53877872      2.83841739      2.96555155
    H      6.47354905      3.33482398      2.00825078
    H      7.56543619      2.72852692      3.28197409
    H      6.04787376      1.87572056      2.92363986
    N      7.26257514      6.30593851      9.37118892
    H      7.94649550      5.88947994     10.00207639
    H      6.36641054      6.24139716      9.85277766
    H      7.48719238      7.29968873      9.33637666
    O      7.24107112      5.44867899      6.69747367
    H      6.83335995      4.57899175      6.77232560
    H      7.29064105      5.78525044      7.59883352


