#B3LYP/TZVP OPT FREQ

Energy:    -86.54732705

0 1
    S      3.57570615      3.55701454      5.08317800
    O      4.09799956      2.47314855      4.04892313
    O      3.66029202      4.83676566      4.47292826
    H      4.83806262      2.00164058      4.41350525
    O      4.24447446      3.29728822      6.31865174
    C      1.87883579      3.09434026      5.20457317
    H      1.43580225      3.15372993      4.22106245
    H      1.81506082      2.09319007      5.60439280
    H      1.40700344      3.80208987      5.87240113
    N      6.94886749      4.49111931      4.18835349
    H      7.27724335      4.46428764      3.22364983
    H      7.52662441      5.18730010      4.65817636
    H      6.01122274      4.88937036      4.15063462
    O      6.54222497      1.92494227      5.28543749
    H      6.88774510      2.72504447      4.87478021
    H      6.18663462      2.20776646      6.13499801


