16
Energy:    -80.47477423
    S      3.30085320      4.64452794      8.24855624
    O      4.66600147      3.83650805      8.27525971
    O      2.80707385      4.73505028      9.57720597
    H      4.59952425      3.06195602      7.72883207
    O      2.50260234      4.06249124      7.21650342
    C      3.87697182      6.23283294      7.74502085
    H      4.59791601      6.58197711      8.46989119
    H      4.31601843      6.15216309      6.76168208
    H      3.01657532      6.88771399      7.72557539
    N      5.42174263      4.30702561      5.11005992
    H      5.35744025      4.28426731      4.09293109
    H      5.00408054      3.43513015      5.43341880
    H      6.41534397      4.23492069      5.32630409
    O      3.98359225      1.95760970      6.22607714
    H      3.22566696      2.54760606      6.30118147
    H      3.61651488      1.10121554      5.98106625
