16
Energy:    -80.47475601
    S      5.09109363      6.08619599      3.60978452
    O      5.69257610      5.06218131      4.66185475
    O      6.14343956      6.53413836      2.76762175
    H      5.54229623      5.37458090      5.54658956
    O      4.30900185      7.02249527      4.35327648
    C      4.03755325      5.01641621      2.68577304
    H      4.63914266      4.22697976      2.25918253
    H      3.27664763      4.61986245      3.34151113
    H      3.59175844      5.61399067      1.90238220
    N      2.81420172      4.16709325      5.97517072
    H      3.41756914      4.85052524      6.43132011
    H      3.19741670      3.25407778      6.21756156
    H      1.91654012      4.22668710      6.45460425
    O      4.60538342      6.30612413      6.99974062
    H      4.28825500      6.82900656      6.25528737
    H      4.70864359      6.93187478      7.72497201
