#B3LYP/TZVP OPT FREQ

Energy:    -79.28482531

0 1
    S      4.65594666      4.12210182      3.48834828
    O      5.41087298      4.36939444      2.11496864
    O      3.47698448      3.37541847      3.22408591
    H      5.50389445      5.30141669      1.95492251
    O      4.58012787      5.38826634      4.14575462
    C      5.81733798      3.08162096      4.31099224
    H      5.97062621      2.19666957      3.71060657
    H      6.73948796      3.62588737      4.45112855
    H      5.38207851      2.81743123      5.26507947
    N      3.03461306      1.53432156      5.59061783
    H      2.75249221      0.57140064      5.41063192
    H      2.90156307      2.03090794      4.71033155
    H      2.33645592      1.91242267      6.23000852
    O      5.48722267      7.15626384      2.18714728
    H      5.38358030      8.10678641      2.06902784
    H      5.10379572      6.96341217      3.04968952


