#B3LYP/TZVP OPT FREQ

Energy:    -41.65691598

0 1
    O      7.26844829      8.01136844      6.98602503
    H      7.73458434      8.44856681      7.70697016
    H      7.85902684      8.07155128      6.22722196
    O      4.59047337      7.81128524      6.81178843
    H      5.54382406      7.94211021      6.85863266
    H      4.44910631      6.88501420      7.03589650


