#B3LYP/TZVP OPT FREQ

Energy:     -8.03936613

0 1
    O      1.01684495      3.07785998      1.63987228
    H      0.22896098      2.95408026      1.09940532
    H      1.46339407      2.22417428      1.63856540
    O      0.97053327      2.24995450      5.50576470
    H      0.94366563      2.31204749      4.54471855
    H      1.79249162      2.67991497      5.76596765


