#B3LYP/TZVP OPT FREQ

Energy:   -613.85705626

0 1
    C      7.96495470      7.78146976     10.54733340
    S      7.72944728      6.66506095      9.17318696
    O      8.92801423      6.82342545      8.35907955
    O      7.60347679      5.34809176      9.78503674
    O      6.51093765      7.13093803      8.52318192
    H      7.10370167      7.71693528     11.20022561
    H      8.86094710      7.49204039     11.08179676
    H      8.06804542      8.78876164     10.16404952
    N      7.21210103      3.50269799      7.45220981
    H      7.32948190      3.94427511      8.36349197
    H      7.93909297      2.79044663      7.39402898
    H      6.32991281      2.99434866      7.50250087
    O      7.43858560      5.92297002      6.25555654
    H      7.33053735      4.96193835      6.46049424
    H      6.70450878      6.46717600      6.63275013
    H      8.32706126      6.26158425      6.52698170


