16
Energy:   -613.85122718
    C      7.07112276      3.98806707      8.46771678
    S      5.70568879      4.40201713      7.39331172
    O      5.63378148      3.29737836      6.44514746
    O      4.55245062      4.49226080      8.28017943
    O      6.08365826      5.67300661      6.78830054
    H      7.18505065      4.77308090      9.20457730
    H      6.85686809      3.04590512      8.95623353
    H      7.97049002      3.90296911      7.87100241
    N      2.28354072      5.18900457      6.44525682
    H      1.84065820      6.07302137      6.69339621
    H      2.89872509      4.95912842      7.22494229
    H      1.53999522      4.49188495      6.46445586
    O      4.38791329      5.03529833      4.74557481
    H      4.73085392      4.11315245      4.84198258
    H      3.49702841      5.14461646      5.15991478
    H      5.03421565      5.70685048      5.07577350
