#B3LYP/TZVP OPT FREQ

Energy:   -613.85120278

0 1
    C      7.28040253      5.12860673      8.57267695
    S      6.67594551      4.88291720      6.91003472
    O      5.59695901      3.91290876      7.04890405
    O      6.22936183      6.20241846      6.48094735
    O      7.82633654      4.38121299      6.16894964
    H      8.09248157      5.84415193      8.54598590
    H      6.47118300      5.50518201      9.18552082
    H      7.63125071      4.18019965      8.95945951
    N      5.22457344      5.75221627      3.69023807
    H      5.50692230      6.11439074      4.60035486
    H      4.24139787      6.00074001      3.58628596
    H      5.72598285      6.31233726      3.00171983
    O      6.03593015      3.27508047      4.42944422
    H      5.49949406      3.05598111      5.23037339
    H      5.68166791      4.06404368      3.95055044
    H      6.99651041      3.37255140      4.64276364


