#B3LYP/TZVP OPT FREQ

Energy:   -613.84773414

0 1
    C      3.16650428      2.23710566      4.07257304
    S      3.56851334      3.87208980      4.66866565
    O      4.76899020      4.24864600      3.93281671
    O      2.40063915      4.68116863      4.34293898
    O      3.78514899      3.70077677      6.09976123
    H      2.27624897      1.88983277      4.58152954
    H      2.99019121      2.28883706      3.00558645
    H      3.99788458      1.57589055      4.28179194
    N      5.41231391      6.99364054      4.95784708
    H      5.37339516      6.09137031      4.48498605
    H      6.33574478      7.04166262      5.38700160
    H      5.41437534      7.69434956      4.21743712
    O      3.18230363      6.35217380      6.35646510
    H      2.48796118      6.18720559      5.67241115
    H      3.41715825      5.52964844      6.85204485
    H      3.98008305      6.79441916      5.97477511


