16
Energy:   -613.84119017
    C      7.21156303      8.14218237      5.66374649
    S      6.26380049      6.64107270      5.46746421
    O      6.95930637      5.89903828      4.42340032
    O      6.31165495      6.00063774      6.77597083
    O      4.93272980      7.09223747      5.08143973
    H      6.74780884      8.74921866      6.43096791
    H      8.22143549      7.88119240      5.95403027
    H      7.22004933      8.67454388      4.72104273
    N      4.71401341      3.48834439      6.40865242
    H      5.28058271      4.26828973      6.74014647
    H      5.26082184      2.64900032      6.59761367
    H      3.91154985      3.44294230      7.03570518
    O      4.58814890      4.62844621      3.95409264
    H      4.16724499      5.51075625      4.10114580
    H      5.52847277      4.71074038      3.66028553
    H      4.49743078      4.03911920      4.74287912
