16
Energy:   -604.86043002
    C      8.63910070      3.50772143      4.85935274
    S      7.38058924      4.48698655      5.66390203
    O      6.83395722      5.32733503      4.60587518
    O      6.43341363      3.51141322      6.18902257
    O      8.09351403      5.22947204      6.69577763
    H      9.09342926      2.85358512      5.59275642
    H      8.17677864      2.92350322      4.07375093
    H      9.38355461      4.17308710      4.44072633
    N      4.38314936      6.96910236      6.93183476
    H      3.41813820      6.77732591      6.66504073
    H      4.92077460      6.93950749      6.06622080
    H      4.39855334      7.94254231      7.23412878
    O      5.92352586      5.20018546      8.29458699
    H      5.28083133      5.89451733      8.00805121
    H      5.64299764      4.29572015      8.01077304
    H      6.84620631      5.40855553      8.00655417
