16
Energy:   -594.37948060
    C     10.94208270      5.04293064      5.73389526
    S      9.38964455      4.79955095      6.58290230
    O      8.39775415      5.44314192      5.73063648
    O      9.23989784      3.35230569      6.67061556
    O      9.56822301      5.45199949      7.87392296
    H     11.73278725      4.58668184      6.31597177
    H     10.88184452      4.57865489      4.75765646
    H     11.12004059      6.10592781      5.63123481
    N      6.38015644      2.14670365      3.37180391
    H      5.47274881      1.71320915      3.20477788
    H      7.06947305      1.40894586      3.23123242
    H      6.51815472      2.80423215      2.60511164
    O      6.71037553      3.35993537      5.78052775
    H      6.53087576      2.90275811      4.92260903
    H      7.43815005      2.92367243      6.28779775
    H      6.87392814      4.32728143      5.65718939
