#B3LYP/TZVP OPT FREQ

Energy:   -613.87238046

0 1
    C      8.19611843      8.05150030      4.37611756
    S      6.80977208      6.92686682      4.31820223
    O      6.17611350      7.18769968      3.03179019
    O      7.40572286      5.60074178      4.42246926
    O      5.98767465      7.29434390      5.46425202
    H      8.71830827      7.91280395      5.31434503
    H      8.85618095      7.83394276      3.54593144
    H      7.82507950      9.06589663      4.30194633
    N      3.67372099      5.38909750      5.33268679
    H      2.77916673      5.86985043      5.24406904
    H      4.35592883      6.11277061      5.55650362
    H      3.59656267      4.81289327      6.17008727
    O      5.15889719      4.65875401      3.18749568
    H      6.03899082      4.40280927      3.55787827
    H      4.47078033      4.74382379      3.89216742
    H      5.21566054      5.47077416      2.62613894


