16
Energy:   -594.36194546
    C      7.73095492      7.21691715      4.02280034
    S      7.70583224      5.94657815      5.27807661
    O      6.67495337      6.37410224      6.21558652
    O      7.37565088      4.72288820      4.55821570
    O      9.05106950      5.95460908      5.83895622
    H      8.48216843      6.96338139      3.28551640
    H      6.75422979      7.26718784      3.55836122
    H      7.97116502      8.16358516      4.49001545
    N      2.96510156      3.96511908      5.24186601
    H      2.51295773      4.87236304      5.34993147
    H      2.31515758      3.28365780      5.63223460
    H      2.98653316      3.78422218      4.23885989
    O      5.47089577      3.97910019      6.29242816
    H      5.66319417      4.85413748      6.71026403
    H      4.54453683      3.92691290      5.95119579
    H      6.13466718      3.74717385      5.59720309
