#B3LYP/TZVP OPT FREQ

Energy:   -594.35126377

0 1
    C      7.21727537      5.25200288      4.20369890
    S      5.72013722      4.54974774      4.87862548
    O      6.13537417      3.92738095      6.12948549
    O      4.82611379      5.68728481      5.05573578
    O      5.27020012      3.59920013      3.86950231
    H      6.98253069      5.73513214      3.26366126
    H      7.61077463      5.97511398      4.90689979
    H      7.93462772      4.45665242      4.04560267
    N      1.96813873      5.65018328      1.54441459
    H      2.46776554      5.25359132      0.74924690
    H      2.18577766      6.64608083      1.53934822
    H      0.97809571      5.58199692      1.31124143
    O      2.73949200      4.48655445      3.87548733
    H      2.39912870      4.89006217      3.03967031
    H      3.39359887      3.76642430      3.69981519
    H      3.09744872      5.16787374      4.49628618


