#B3LYP/TZVP OPT FREQ

Energy:   -594.33365656

0 1
    C      4.32095599      1.71037739      0.78870884
    S      4.28523629      1.83509472      2.57007925
    O      4.45171288      0.46533638      3.03961156
    O      5.40262426      2.71054921      2.90122891
    O      2.97951695      2.40675346      2.87440970
    H      4.20063299      2.70053567      0.36764035
    H      5.27226093      1.28997773      0.48786696
    H      3.51084166      1.06759252      0.46821929
    N      3.64583554      6.81455636      3.66451365
    H      3.54143417      7.53040877      4.38274723
    H      2.82497803      6.90090067      3.06623120
    H      4.43704676      7.10902042      3.09312937
    O      3.95889133      4.26268601      4.54361913
    H      4.83324114      3.90431025      4.25321429
    H      3.84215668      5.20970629      4.28510501
    H      3.20710335      3.69964554      4.23455530


