#B3LYP/TZVP OPT FREQ

Energy:   -594.31832720

0 1
    C      3.23808382      3.34928938      4.49351271
    S      3.54819754      3.32083402      6.25224254
    O      3.68631211      4.72294480      6.62563599
    O      2.37427882      2.67263713      6.82354996
    O      4.77607719      2.54933045      6.39855561
    H      3.12467733      2.33114682      4.14320657
    H      2.33099572      3.91076631      4.30869480
    H      4.07715082      3.82264518      3.99947626
    N      8.12547649      5.54670310      6.95686075
    H      8.59952801      4.93634776      6.29207106
    H      8.84247526      5.84822700      7.61579959
    H      7.86510596      6.38003815      6.43058690
    O      5.94030426      4.33561029      8.02510592
    H      5.86117605      3.40994678      7.68725752
    H      6.75884442      4.78160320      7.69588524
    H      5.12842159      4.86828720      7.83849924


