#B3LYP/TZVP OPT FREQ

Energy:   -594.31457058

0 1
    C      4.49741631     -0.82004715      6.08860091
    S      4.61811516     -0.77619883      7.87006658
    O      5.98493610     -0.34622381      8.13715254
    O      3.60637470      0.18760825      8.28490835
    O      4.33786025     -2.14248194      8.29319939
    H      3.49857072     -1.13546594      5.81472470
    H      4.69493781      0.17159020      5.70147893
    H      5.22816218     -1.52195012      5.70713811
    N      5.78375363      4.06707112      9.12515884
    H      6.58506442      4.10041945      8.49587932
    H      5.98438581      4.73938649      9.86471482
    H      5.00269570      4.45836148      8.59975932
    O      5.26107888      1.52183180      9.91962785
    H      4.34472850      1.26176165      9.65520156
    H      5.94131236      0.90338257      9.55616273
    H      5.45854186      2.46367677      9.69234691


