16
Energy:   -594.28634728
    C      4.14649888      0.97444754      1.55741278
    S      3.98786511      1.27805199      3.31034475
    O      3.73565022     -0.03473660      3.89119474
    O      5.26628543      1.85881318      3.70148984
    O      2.86354436      2.19832199      3.42575573
    H      4.33608182      1.91541996      1.05659453
    H      4.97160811      0.29246604      1.39518203
    H      3.22458871      0.53776226      1.19470249
    N      4.62789996      6.33218309      3.97135487
    H      4.66934195      7.11604826      4.62177147
    H      3.91259828      6.57730594      3.28764252
    H      5.51206157      6.34629170      3.46414339
    O      4.15628013      3.88736526      5.05903350
    H      3.31031438      3.51419197      4.70926302
    H      4.92308474      3.28567428      4.89385906
    H      4.32452131      4.80173705      4.72237439
