16
Energy:   -613.86356353
    C      8.07540701      8.40953538      4.14961340
    S      6.92114130      7.04673438      4.12605640
    O      6.36287225      7.01228517      5.47199914
    O      5.95251412      7.40125637      3.09614762
    O      7.73180390      5.88149387      3.79536861
    H      8.53357584      8.49499399      3.17238883
    H      7.53736445      9.31773681      4.39024420
    H      8.83074076      8.21332644      4.90004271
    N      4.43356809      4.71596165      5.39466755
    H      4.66408408      3.99176705      6.07408522
    H      3.47911034      5.00284585      5.60893876
    H      5.02210678      5.51421676      5.63049649
    O      5.43327363      4.72887720      2.87644761
    H      4.93915099      4.53333611      3.71003158
    H      5.21293419      5.62263834      2.51596807
    H      6.40804786      4.60447446      2.98626279
