16
Energy:   -613.85788882
    C      8.11893801      5.36016512      2.06893842
    S      6.90394874      4.91301588      3.29937308
    O      5.61946444      5.12058074      2.64253989
    O      7.18807356      3.51715810      3.60838879
    O      7.15060608      5.82366396      4.41031589
    H      9.10713460      5.23011072      2.49171859
    H      7.99439994      4.71742889      1.20661411
    H      7.96622267      6.39465989      1.78845711
    N      3.60792344      4.35816913      4.73378862
    H      3.00665100      3.59174155      4.43334892
    H      4.11262651      4.65722957      3.90009686
    H      2.98052145      5.12670437      4.96814859
    O      5.96384729      3.95322470      6.00916743
    H      6.41602208      4.83228072      6.00180463
    H      5.01045481      4.02474040      5.75770727
    H      6.44258129      3.28623567      5.45811425
