#B3LYP/TZVP OPT FREQ

Energy:   -613.85786442

0 1
    C      5.28569913      8.42840463     11.36043339
    S      5.02023889      7.25547194     10.03987647
    O      4.76143855      5.99044556     10.71600039
    O      3.87262337      7.77710602      9.30808889
    O      6.26168710      7.27130806      9.27641771
    H      5.48660586      9.40040155     10.92794272
    H      4.39459140      8.46989428     11.97397104
    H      6.13127221      8.10124370     11.95216228
    N      4.31827388      4.04983609      8.47133233
    H      4.43327948      4.53272203      9.36172476
    H      4.98587736      3.27957791      8.48589961
    H      3.39585160      3.61740944      8.50805587
    O      4.79244761      6.37091726      7.15653638
    H      5.69491956      6.65204945      7.44595791
    H      4.59724595      5.43507715      7.40833699
    H      4.09189049      6.99281916      7.47304537


